/*--------------------------------*- C++ -*----------------------------------*\
  =========                 |
  \\      /  F ield         | OpenFOAM: The Open Source CFD Toolbox
   \\    /   O peration     | Website:  https://openfoam.org
    \\  /    A nd           | Version:  8
     \\/     M anipulation  |
\*---------------------------------------------------------------------------*/
FoamFile
{
    version     2.0;
    format      ascii;
    class       dictionary;
    location    "system";
    object      topoSetDict;
}
// * * * * * * * * * * * * * * * * * * * * * * * * * * * * * * * * * * * * * //

actions
(
   {
        name    c0;
        type    cellSet;
        action  new;
        source  cylinderAnnulusToCell;
        sourceInfo
        {
            p1 (0 0 -0.001);
            p2 (0 0 0.001);
            innerRadius 0.037;
            outerRadius 0.0397;
        }
    }
    // Get all faces on patch inlet
    {
        name    f0;
        type    faceSet;
        action  new;
        source  patchToFace;
        sourceInfo
        {
            name inlet;
        }
    }

    // Get neighboring cells
    {
        name    inlet_cells;
        type    cellSet;
        action  new;
        source  faceToCell;
        sourceInfo
        {
            set f0; 
            option any; 
        } 
    }
);

// ************************************************************************* //

