/*--------------------------------*- C++ -*----------------------------------*\
  =========                 |
  \\      /  F ield         | OpenFOAM: The Open Source CFD Toolbox
   \\    /   O peration     | Website:  https://openfoam.org
    \\  /    A nd           | Version:  8
     \\/     M anipulation  |
\*---------------------------------------------------------------------------*/
FoamFile
{
    version     2.0;
    format      ascii;
    class       volScalarField;
    object      p_rgh;
}
// * * * * * * * * * * * * * * * * * * * * * * * * * * * * * * * * * * * * * //

#include "../system/caseSettings"

dimensions      [1 -1 -2 0 0 0 0];

internalField   uniform $p_out;

boundaryField
{
    inlet
    {
        type            fixedFluxPressure;
        gradient        uniform 0;
        value           $internalField;
    }
    outlet
    {
        type            prghPressure;
        p               uniform $p_out;
        value           $internalField;
    }
    wall // group
    {
        type            fixedFluxPressure;
        gradient        uniform 0;
        value           $internalField;
    }
    cyclic  // group
    {
        type            cyclic;
    }
}


// ************************************************************************* //
